<?xml version="1.0" ?>
<additional>

<poly color="red" fill="1" id="poly_0" layer="128.00" shape="7.0,10.0 9.0,10.0 9.0,2.0 7.0,2.0 7.0,10.0" type="building"/>
<!--<poly color="red" fill="1" id="poly_0" layer="128.00" shape="8.2,-8.2 91.8,-8.2 91.8,-91.8 8.2,-91.8 8.2,-8.2" type="building"/>-->

<!--<poly color="red" fill="1" id="poly_1" layer="128.00" shape="8.2,-108.2 91.8,-108.2 91.8,-191.8 8.2,-191.8 8.2,-108.2" type="building"/>-->

<!--<poly color="red" fill="1" id="poly_2" layer="128.00" shape="108.2,-8.2 191.8,-8.2 191.8,-91.8 108.2,-91.8 108.2,-8.2" type="building"/>-->

<!--<poly color="red" fill="1" id="poly_3" layer="128.00" shape="108.2,-108.2 191.8,-108.2 191.8,-191.8 108.2,-191.8 108.2,-108.2" type="building"/>-->
</additional>
